<?xml version="1.0" encoding="UTF-8"?>

<!-- generated on Wed Nov  2 17:19:39 2016 by SUMO netconvert Version 0.25.0
<?xml version="1.0" encoding="UTF-8"?>

<configuration xmlns:xsi="http://www.w3.org/2001/XMLSchema-instance" xsi:noNamespaceSchemaLocation="http://sumo.dlr.de/xsd/netconvertConfiguration.xsd">

    <input>
        <node-files value="demo.nod.xml"/>
        <edge-files value="demo.edg.xml"/>
        <type-files value="demo.typ.xml"/>
    </input>

    <output>
        <output-file value="demo.net.xml"/>
    </output>

    <processing>
        <no-turnarounds value="true"/>
    </processing>

</configuration>
-->

<net version="0.25" xmlns:xsi="http://www.w3.org/2001/XMLSchema-instance" xsi:noNamespaceSchemaLocation="http://sumo.dlr.de/xsd/net_file.xsd">

    <location netOffset="250.00,0.00" convBoundary="0.00,0.00,501.00,0.00" origBoundary="-250.00,0.00,251.00,0.00" projParameter="!"/>

    <type id="a" priority="3" numLanes="5" speed="13.89"/>

    <edge id=":2_0" function="internal">
        <lane id=":2_0_0" index="0" speed="13.89" length="0.10" shape="500.00,-14.85 500.00,-14.85"/>
        <lane id=":2_0_1" index="1" speed="13.89" length="0.10" shape="500.00,-11.55 500.00,-11.55"/>
        <lane id=":2_0_2" index="2" speed="13.89" length="0.10" shape="500.00,-8.25 500.00,-8.25"/>
        <lane id=":2_0_3" index="3" speed="13.89" length="0.10" shape="500.00,-4.95 500.00,-4.95"/>
        <lane id=":2_0_4" index="4" speed="13.89" length="0.10" shape="500.00,-1.65 500.00,-1.65"/>
    </edge>

    <edge id="1to2" from="1" to="2" priority="3" type="a">
        <lane id="1to2_0" index="0" speed="13.89" length="500.00" shape="0.00,-14.85 500.00,-14.85"/>
        <lane id="1to2_1" index="1" speed="13.89" length="500.00" shape="0.00,-11.55 500.00,-11.55"/>
        <lane id="1to2_2" index="2" speed="13.89" length="500.00" shape="0.00,-8.25 500.00,-8.25"/>
        <lane id="1to2_3" index="3" speed="13.89" length="500.00" shape="0.00,-4.95 500.00,-4.95"/>
        <lane id="1to2_4" index="4" speed="13.89" length="500.00" shape="0.00,-1.65 500.00,-1.65"/>
    </edge>
    <edge id="out" from="2" to="3" priority="3" type="a">
        <lane id="out_0" index="0" speed="13.89" length="1.00" shape="500.00,-14.85 501.00,-14.85"/>
        <lane id="out_1" index="1" speed="13.89" length="1.00" shape="500.00,-11.55 501.00,-11.55"/>
        <lane id="out_2" index="2" speed="13.89" length="1.00" shape="500.00,-8.25 501.00,-8.25"/>
        <lane id="out_3" index="3" speed="13.89" length="1.00" shape="500.00,-4.95 501.00,-4.95"/>
        <lane id="out_4" index="4" speed="13.89" length="1.00" shape="500.00,-1.65 501.00,-1.65"/>
    </edge>

    <junction id="1" type="unregulated" x="0.00" y="0.00" incLanes="" intLanes="" shape="0.00,-0.05 0.00,-16.45"/>
    <junction id="2" type="priority" x="500.00" y="0.00" incLanes="1to2_0 1to2_1 1to2_2 1to2_3 1to2_4" intLanes=":2_0_0 :2_0_1 :2_0_2 :2_0_3 :2_0_4" shape="500.00,-0.05 500.00,-16.45 500.00,-0.05">
        <request index="0" response="00000" foes="00000" cont="0"/>
        <request index="1" response="00000" foes="00000" cont="0"/>
        <request index="2" response="00000" foes="00000" cont="0"/>
        <request index="3" response="00000" foes="00000" cont="0"/>
        <request index="4" response="00000" foes="00000" cont="0"/>
    </junction>
    <junction id="3" type="unregulated" x="501.00" y="0.00" incLanes="out_0 out_1 out_2 out_3 out_4" intLanes="" shape="501.00,-16.45 501.00,-0.05"/>

    <connection from="1to2" to="out" fromLane="0" toLane="0" via=":2_0_0" dir="s" state="M"/>
    <connection from="1to2" to="out" fromLane="1" toLane="1" via=":2_0_1" dir="s" state="M"/>
    <connection from="1to2" to="out" fromLane="2" toLane="2" via=":2_0_2" dir="s" state="M"/>
    <connection from="1to2" to="out" fromLane="3" toLane="3" via=":2_0_3" dir="s" state="M"/>
    <connection from="1to2" to="out" fromLane="4" toLane="4" via=":2_0_4" dir="s" state="M"/>

    <connection from=":2_0" to="out" fromLane="0" toLane="0" dir="s" state="M"/>
    <connection from=":2_0" to="out" fromLane="1" toLane="1" dir="s" state="M"/>
    <connection from=":2_0" to="out" fromLane="2" toLane="2" dir="s" state="M"/>
    <connection from=":2_0" to="out" fromLane="3" toLane="3" dir="s" state="M"/>
    <connection from=":2_0" to="out" fromLane="4" toLane="4" dir="s" state="M"/>

</net>
