<edges>
    <edge from="1" id="1to2" to="2" type="a" />
    <edge from="2" id="out" to="3"  type="a"/>
</edges>
