<routes>
  <vType accel=".1" decel=".2" id="RoadBlock" length="2.0" maxSpeed="5.0" sigma="1.5" />
  <vType accel=".1" decel=".2" id="Human" length="2.0" maxSpeed="5.0" sigma="1.5" />
  <vType accel=".1" decel=".2" id="Tesla" length="2.0" maxSpeed="5.0" sigma="1" color="1,.3,.3" />
  <vType accel=".1" decel=".2" id="BMW" length="2.0" maxSpeed="5.0" sigma="1" color="1,1,1" />
  <vType accel=".1" decel=".2" id="Audi" length="2.0" maxSpeed="5.0" sigma="1.25" color=".3,.3,1" />
  <vType accel=".1" decel=".2" id="Volvo" length="2.0" maxSpeed="5.0" sigma=".75" color=".5,.5,.5" />

  <route id="route0" edges="1to2 out"/>

  <vehicle depart="10" departLane="0" id="0_roadBlock" route="route0" type="Human" />
  <vehicle depart="10" departLane="1" id="1_roadBlock" route="route0" type="Tesla" />
  <vehicle depart="10" departLane="2" id="2_roadBlock" route="route0" type="Volvo" />
  <vehicle depart="10" departLane="3" id="3_roadBlock" route="route0" type="Volvo" />


  <vehicle depart="20" departLane="0" id="0_1" route="route0" type="Human" />
  <vehicle depart="20" departLane="1" id="1_1" route="route0" type="Tesla" />
  <vehicle depart="20" departLane="2" id="2_1" route="route0" type="BMW" />
  <vehicle depart="20" departLane="3" id="3_1" route="route0" type="BMW" />


  <vehicle depart="30" departLane="0" id="0_2" route="route0" type="Human" />
  <vehicle depart="30" departLane="1" id="1_2" route="route0" type="Tesla" />
  <vehicle depart="30" departLane="2" id="2_2" route="route0" type="BMW" />
  <vehicle depart="30" departLane="3" id="3_2" route="route0" type="BMW" />


  <vehicle depart="40" departLane="0" id="0_3" route="route0" type="Human" />
  <vehicle depart="40" departLane="1" id="1_3" route="route0" type="Tesla" />
  <vehicle depart="40" departLane="2" id="2_3" route="route0" type="BMW" />
  <vehicle depart="40" departLane="3" id="3_3" route="route0" type="BMW" />


  <vehicle depart="50" departLane="0" id="0_4" route="route0" type="Human" />
  <vehicle depart="50" departLane="1" id="1_4" route="route0" type="Tesla" />
  <vehicle depart="50" departLane="2" id="2_4" route="route0" type="Audi" />
  <vehicle depart="50" departLane="3" id="3_4" route="route0" type="Audi" />


  <vehicle depart="60" departLane="0" id="0_5" route="route0" type="Human" />
  <vehicle depart="60" departLane="1" id="1_5" route="route0" type="Tesla" />
  <vehicle depart="60" departLane="2" id="2_5" route="route0" type="Audi" />
  <vehicle depart="60" departLane="3" id="3_5" route="route0" type="Audi" />

  <vehicle depart="70" departLane="0" id="0_6" route="route0" type="Human" />
  <vehicle depart="70" departLane="1" id="1_6" route="route0" type="Tesla" />
  <vehicle depart="70" departLane="2" id="2_6" route="route0" type="Volvo" />
  <vehicle depart="70" departLane="3" id="3_6" route="route0" type="Volvo" />

  <vehicle depart="80" departLane="0" id="0_7" route="route0" type="Human" />
  <vehicle depart="80" departLane="1" id="1_7" route="route0" type="Tesla" />
  <vehicle depart="80" departLane="2" id="2_7" route="route0" type="Volvo" />
  <vehicle depart="80" departLane="3" id="3_7" route="route0" type="Volvo" />

  <vehicle depart="90" departLane="0" id="0_8" route="route0" type="Human" />
  <vehicle depart="90" departLane="1" id="1_8" route="route0" type="Tesla" />
  <vehicle depart="90" departLane="2" id="2_8" route="route0" type="Volvo" />
  <vehicle depart="90" departLane="3" id="3_8" route="route0" type="Volvo" />

</routes>
