<?xml version="1.0" encoding="UTF-8"?>
<types>
  <type id="a" priority="3" numLanes="5" speed="13.889"/>
</types>
